Geom Title=Geom 01 by CodeH2 for Windows
Viewing Rectangle = 0, 1, 1, 0

River Reach=Main Stem,Reach - 1
Junct Up Dn=                ,
Reach XY= 2
              .5             .95              .5             .05
Rch Text X Y=0.5,0.725
Reverse River Text= 0

Type RM Length L Ch R = 1 ,115269.0,313,313,313
BEGIN DESCRIPTION:
Cross Section New River 122.0
END DESCRIPTION:
#Sta/Elev= 104
  3900.3    56.5  3910.3   56.07  3990.3   54.76  4010.3   53.99  4080.3   53.01
  4120.3   52.66  4150.3   51.73  4180.3   51.19  4190.3    50.8  4210.3   49.64
  4260.3   47.72  4350.3   46.49  4410.3    46.5  4420.3   46.66  4460.3   46.32
  4512.6   46.36  4520.3   46.37  4590.3    46.6  4630.3   46.05  4640.3   45.74
  4650.3   45.04  4660.3    44.1  4730.3   34.95  4740.3   34.19  4820.3   33.98
  4830.3    33.8  4860.3   34.42  4900.3   36.04  4910.3   35.61    4972   36.01
  4978.3   28.79  4988.3   26.54  4992.7   24.65  5000.4   26.26  5009.6   25.73
  5011.7   26.63    5027   33.46  5055.4   32.91  5085.4    37.5  5125.4   36.72
  5165.4   34.67  5195.4   34.25  5215.4    34.7  5235.4   34.46  5255.4   34.58
  5265.4    34.4  5275.4   34.01  5295.4   34.94  5325.4   35.21  5335.4    35.5
  5415.4   36.32  5425.4   36.21  5435.4   36.37  5475.4   35.76  5515.4    37.9
  5525.4   37.58  5535.4   37.51  5595.4   40.45  5615.4   40.22  5625.4   39.59
  5645.4   39.11  5692.2   38.82  5695.4    38.8  5715.4   39.22  5735.4   40.82
  5745.4    41.2  5755.4    41.1  5785.4    42.5  5845.4   43.46  5895.4   44.14
  5915.4   44.03  5935.4   44.16  5995.4   43.72  6005.4   43.51  6025.4   42.81
  6035.4   42.78  6045.4   42.34  6065.4   41.87  6085.4   42.14  6105.4   43.33
  6135.4   44.13  6145.4      44  6155.4   44.27  6185.4   44.35  6195.4   44.62
  6215.4   44.58  6295.4   45.49  6305.4   45.75  6315.4   45.76  6323.1   45.97
  6325.4   46.03  6345.4   46.15  6355.4   46.56  6365.4   46.48  6375.4   46.85
  6395.4   47.13  6405.4   47.49  6445.4   48.27  6475.4   49.26  6525.4   50.07
  6545.4   50.78  6555.4   50.83  6565.4    51.4  6603.2   52.14
#Mann= 6 , 1 , 0
 3900.30     0.1       0  4512.6    0.15       0    4972   0.045       0
    5027    0.15       0  5692.2     0.1       0  6323.1     0.2       0
Bank Sta=4972.00,5027.00
Exp/Cntr=0.3,0.1

Type RM Length L Ch R = 1 ,114956.0,600,600,600
BEGIN DESCRIPTION:
Cross Section New River 121.0 (SURV CCX22)
Located At: GREGORY FORK RD
END DESCRIPTION:
#Sta/Elev= 85
  4023.4   55.55  4033.4   55.41  4043.4   55.01  4133.4   53.49  4153.4      53
  4193.4   52.48  4243.4   51.46  4333.4   50.88  4413.4   50.01  4423.4   50.06
  4433.4   49.85  4443.4   50.15  4463.4   49.91  4483.4    49.9  4513.4    49.4
  4553.4   49.05  4633.4   47.13  4693.4   44.92  4713.4   43.23  4743.4    41.3
  4799.6   36.51  4813.4   35.33  4823.4   34.29  4833.4   34.39  4843.4    34.7
  4883.4   34.21  4899.4   32.72  4948.9   37.58  4958.3   38.26    4972   35.64
  4978.3   28.42  4988.3   26.17  4992.7   24.28  5000.4   25.89  5009.6   25.36
  5011.7   26.26    5020   33.09  5054.7    36.9  5075.5   32.73  5085.3   32.17
  5107.6   35.12  5109.8    36.3  5119.8   36.17  5129.8   35.27  5139.8   35.12
  5169.8   36.66  5186.6   36.88  5256.6    37.9  5266.6    37.8  5276.6   37.49
  5326.6   37.04  5416.6   37.37  5436.6   36.71  5446.6   36.63  5496.6   38.26
  5526.6   38.55  5566.6   41.81  5606.6   42.82  5623.2   42.82  5626.6   42.82
  5636.6   42.63  5676.6   43.21  5756.6   43.81  5766.6    43.7  5806.6   43.78
  5846.6    43.5  5856.6   43.57  5876.6   43.34  5996.6   43.08  6056.6   43.48
  6106.6   44.13  6146.6   43.94  6156.6   43.74  6166.6   43.89  6196.6   43.45
  6306.6   43.32  6316.6   43.55  6336.6    43.4  6376.6   44.03  6426.6   46.26
  6446.6   46.94  6455.7   46.96  6456.6   46.96  6496.6   47.64  6631.7   51.75
#Mann= 6 , 1 , 0
 4023.40     0.1       0  4799.6    0.15       0    4972   0.045       0
    5020    0.15       0  5623.2     0.1       0  6455.7     0.2       0
Bank Sta=4972.00,5020.00
Exp/Cntr=0.3,0.1

Type RM Length L Ch R = 1 ,114356.0,500,500,500
BEGIN DESCRIPTION:
Cross Section New River 120.0
END DESCRIPTION:
#Sta/Elev= 94
  3786.1   55.24  3816.1   54.81  3936.1   52.42  3946.1   52.07  3996.1   51.17
  4056.1   49.19  4066.1   49.29  4076.1   48.09  4086.1    46.3  4096.1   46.04
  4116.1   45.95  4146.1   43.32  4166.1   42.43  4216.1   41.14  4236.1   40.09
  4246.1   39.86  4266.1   40.19  4326.1   35.79  4366.1   34.48  4496.1   35.38
  4516.1   35.24  4536.1   35.45  4576.1   35.26  4606.1   35.88  4646.1   34.83
  4656.1   34.86  4696.1   35.83  4716.1   35.12  4726.1   34.41  4846.1   33.88
  4886.1   35.38  4926.1   35.87  4936.1   35.73    4972   35.02  4978.3    27.8
  4988.3   25.55  4992.7   23.66  5000.4   25.27  5009.6   24.74  5011.7   25.64
  5019.9   32.47    5020   32.47    5030   32.23    5060   35.77    5130    37.5
    5150    35.5    5180   33.96    5190   33.74    5210   34.14    5230   33.46
    5240   32.68    5250   32.45    5260    32.6    5300   35.17    5310   35.34
    5330   34.92    5350   35.77    5370   37.06    5380   36.91    5390   37.25
    5410   39.38  5417.6   39.79    5440   40.98    5480   40.91    5530   40.29
    5610   40.44    5650   40.08    5670   40.19    5680   40.42    5700   40.33
    5760   40.91    5810   41.14    5870   40.81    5950   41.59    5960   41.85
    6060   42.36    6080   42.84    6100   42.96    6110   43.26    6150    43.6
    6160   43.53    6220   44.57    6250   45.35    6290   46.89    6310   47.32
  6340.7   50.01    6350   50.82    6360   50.95    6370   51.94    6380   53.19
    6390   53.81    6400   53.62    6410   53.82    6420   54.94
#Mann= 5 , 1 , 0
 3786.10    0.15       0    4972   0.045       0  5019.9    0.15       0
  5417.6     0.1       0  6340.7     0.2       0
Bank Sta=4972.00,5019.90
Exp/Cntr=0.3,0.1

Type RM Length L Ch R = 1 ,113856.0,503,503,503
BEGIN DESCRIPTION:
Cross Section New River 119.0
END DESCRIPTION:
#Sta/Elev= 74
  4071.5   55.22  4081.5   54.44  4106.1   51.67  4121.5   49.93  4131.5   48.67
  4141.5   47.02  4201.5   41.23  4231.5   37.51  4241.5   36.65  4261.5   35.73
  4341.5   34.84  4381.5   34.95  4411.5   34.64  4431.5    34.8  4441.5   35.13
  4471.5   35.12  4501.5    34.4  4521.5   34.19  4571.5   34.39  4621.5   33.88
  4641.5   33.25  4691.5   33.51  4731.5      33  4741.5   33.15  4751.5   32.78
  4801.5   33.84  4811.5   33.39  4831.5    34.3  4841.5   34.55  4881.5   34.44
  4931.5   35.39  4961.5   35.32    4972   34.51  4978.3   27.29  4988.3   25.04
  4992.7   23.15  5000.4   24.76  5009.6   24.23  5011.7   25.13  5019.9   31.96
    5020   31.97    5060    35.1    5110   32.99    5140    33.8    5160   33.68
    5190      33    5210    33.2    5220   33.74    5260   34.12    5320    33.9
    5340   34.88    5370   35.51    5390   36.22  5408.3   36.44    5410   36.46
    5430   36.25    5470   36.35    5480   37.17    5490   37.15    5500   37.38
    5510   37.87    5600   40.54    5680   41.36    5700   41.21    5750   40.76
    5780   40.22    5840    40.4    5850   40.28    5860   40.39    5880   41.17
    6020   45.47  6087.2   49.23    6100   49.95  6134.9   51.58
#Mann= 6 , 1 , 0
 4071.50     0.2       0  4106.1    0.15       0    4972   0.045       0
  5019.9    0.15       0  5408.3     0.1       0  6087.2     0.2       0
Bank Sta=4972.00,5019.90
Exp/Cntr=0.3,0.1

Type RM Length L Ch R = 1 ,113353.0,511,511,511
BEGIN DESCRIPTION:
Cross Section New River 118.0
END DESCRIPTION:
#Sta/Elev= 80
    3792   52.56    3812   52.08    3832   52.08    3862    51.3    3872   50.83
  3901.8    48.2    3952   43.77    3972   42.24    3982   41.09    3992   40.52
    4002   40.31    4032   38.03    4042    37.5    4082   37.23    4102   36.59
    4122   36.56    4132   36.35    4172   37.01    4202   36.46    4302   35.82
    4352   34.96    4522   34.74    4542   34.37    4602   34.46    4622   33.78
    4692   33.78    4702   33.96    4722   33.91    4762   33.08    4792   33.09
    4832   32.75    4842   32.81    4862   33.72    4892   33.89    4932   32.72
    4942   31.73    4962    29.2  4983.4   30.13  4989.6   24.68  4992.9    23.2
  5001.1   22.63  5007.1   24.02  5010.4   24.67  5023.4   30.48  5041.4   34.36
  5051.4   36.18  5061.4   34.67  5111.4   34.53  5171.4   33.23  5191.4   33.52
  5211.4   33.21  5231.4   32.52  5251.4   33.07  5341.4   33.27  5361.4   33.07
  5401.4   33.77  5421.4   33.57  5431.4   33.66  5451.4   34.35  5521.4   35.12
  5531.4   34.61  5591.4   34.15  5651.4   34.49  5681.4   37.25  5711.4    38.9
  5741.4   39.97  5771.4   40.42  5781.4   40.31  5791.4   40.57  5811.4   40.59
  5841.4    39.6  5862.2   40.26  5931.4   42.44  5951.4   43.31  5981.4   46.57
  6001.4   47.67  6011.4   48.83  6031.4    50.2  6051.4   50.77  6091.4   51.24
#Mann= 5 , 1 , 0
 3792.00     0.2       0  3901.8    0.15       0  4983.4   0.045       0
  5023.4    0.15       0  5862.2     0.1       0
Bank Sta=4983.40,5023.40
Exp/Cntr=0.3,0.1

Type RM Length L Ch R = 1 ,112842.0,349,349,349
BEGIN DESCRIPTION:
Cross Section New River 117.0
END DESCRIPTION:
#Sta/Elev= 78
  4058.5    53.3  4088.5   50.29  4131.5    47.8  4138.5    47.4  4158.5   45.85
  4168.5   45.42  4198.5   45.03  4258.5   43.44  4368.5   41.28  4408.5   40.75
  4458.5   39.54  4478.5   39.26  4492.5    38.8  4538.5    37.3  4588.5   36.27
  4628.5   36.04  4658.5   34.86  4678.5    33.6  4708.5   32.69  4718.5   32.14
  4728.5   31.95  4808.5   31.63  4828.5    32.2  4848.5   32.14  4858.5   32.88
  4868.5   33.37  4888.5   32.85  4938.5      29  4948.5   28.63  4983.4    29.6
  4989.6   24.15  4992.9   22.67  5001.1    22.1  5007.1   23.49  5010.4   24.14
  5024.4   29.95  5049.2   35.09  5069.2   34.22  5099.2   33.94  5109.2   34.01
  5129.2   34.83  5139.2   34.78  5159.2   33.36  5169.2   32.99  5179.2   32.85
  5189.2   32.45  5199.2   32.41  5219.2   32.72  5239.2   32.58  5249.2   32.71
  5269.2   32.05  5289.2   32.28  5319.2   32.15  5359.2   32.92  5389.2   32.65
  5399.2   32.78  5419.2   32.61  5439.2   32.82  5479.2   34.34  5509.2   35.04
  5539.2   36.72  5549.2   36.91  5589.2   36.15  5629.2   37.39  5659.2   38.66
  5663.3    38.7  5819.2   40.06  5849.2   40.95  5869.2   42.19  5889.2   42.51
  5899.2   42.95  5959.2      49  5969.2   50.84  5979.2    52.1  5999.2   53.63
  6009.2   54.05  6019.2   53.69  6049.2   54.38
#Mann= 6 , 1 , 0
 4058.50    0.15       0  4131.5     0.1       0  4492.5    0.15       0
  4983.4   0.045       0  5024.4    0.15       0  5663.3     0.1       0
Bank Sta=4983.40,5024.40
Exp/Cntr=0.3,0.1

Type RM Length L Ch R = 1 ,112493.0,641,641,641
BEGIN DESCRIPTION:
Cross Section New River 116.0 (SURV CCX21)
Located At: GREGORY FORK RD
END DESCRIPTION:
#Sta/Elev= 66
  4161.3   52.79  4171.3   52.68  4181.3   51.92  4241.3   49.54  4251.3   49.43
  4261.3   49.59  4291.3   48.94  4321.3   47.36  4341.3   45.76  4411.3   44.52
  4412.1   44.47  4421.3   43.84  4441.3   43.21  4471.3   42.54  4551.3    39.8
  4581.3   39.57  4591.3   39.96  4601.3    39.9  4612.4   39.21  4661.3   36.17
  4761.3   33.76  4771.3   34.44  4801.3   33.89  4827.1    34.4  4857.1   35.08
  4867.1   34.45  4877.1   33.56  4883.6   32.88  4924.9   33.32  4931.6   30.06
  4943.4   29.52  4957.4    35.5  4969.1   35.31  4983.4   29.24  4989.6   23.79
  4992.9   22.31  5001.1   21.74  5007.1   23.13  5010.4   23.78  5017.4   29.59
  5029.6   33.49  5043.9   34.97  5066.4   32.74  5077.1   35.05  5087.1   34.31
  5117.1   32.78  5157.1   32.55  5167.1   32.23  5217.1   31.89  5267.1   32.36
  5297.1   31.93  5347.1   32.01  5357.1   32.23  5367.1   32.07  5437.1   32.61
  5537.1   34.05  5547.1      34  5557.1   33.52  5577.1   33.98  5677.1    38.2
  5697.1   38.64  5701.4   38.89  5707.1   39.22  5916.4   43.51  5917.1   43.52
  5982.2   46.55
#Mann= 7 , 1 , 0
 4161.30    0.15       0  4412.1     0.1       0  4612.4    0.15       0
  4983.4   0.045       0  5017.4    0.15       0  5701.4     0.1       0
  5916.4     0.2       0
Bank Sta=4983.40,5017.40
Exp/Cntr=0.3,0.1

Type RM Length L Ch R = 1 ,111852.0,523,523,523
BEGIN DESCRIPTION:
Cross Section New River 115.0
END DESCRIPTION:
#Sta/Elev= 75
  4111.5    52.4  4159.2   51.77  4171.5   51.61    4219   49.41  4231.5   48.83
  4241.5   48.11  4271.5   47.06  4281.5    46.1  4301.5   45.29  4331.5   43.75
  4351.5    43.2  4371.5   42.33  4441.5   40.24  4511.5   37.27  4569.7   36.59
  4571.5   36.57  4591.5   36.49  4631.5   35.43  4681.5    31.8  4691.5   31.41
  4711.5   31.39  4791.5   32.05  4811.5   31.47  4851.5   32.14  4871.5   31.92
  4983.4   28.99  4989.6   23.54  4992.9   22.06  5001.1   21.49  5007.1   22.88
  5010.4   23.53  5011.5   25.08  5021.5   23.84  5031.5   23.86  5031.6   23.87
  5041.6   27.79  5051.6    33.3  5061.6    34.7  5111.6   32.61  5121.6   32.07
  5161.6   31.73  5171.6   31.81  5201.6   31.08  5211.6   30.99  5311.6   32.68
  5321.6   32.56  5331.6   32.07  5351.6   32.24  5421.6   34.08  5461.6   34.07
  5491.6   35.08  5591.6   34.91  5631.6    33.7  5641.6   33.57  5661.6   34.03
  5681.6   34.95  5701.6   34.71  5731.6   34.99  5781.6   35.12  5791.6   34.66
  5801.6   34.94  5811.6   35.48  5821.6    36.3  5831.6   36.79  5841.6   37.87
  5851.6   39.24  5891.6   42.66  5901.6    44.2  5911.6   45.11  5931.6   46.51
  5951.6   47.26  5956.8   47.68  5991.6   50.51  6011.6   51.91  6031.6   52.95
#Mann= 7 , 1 , 0
 4111.50     0.2       0  4159.2    0.15       0    4219     0.1       0
  4569.7    0.15       0  4983.4   0.045       0  5041.6    0.15       0
  5956.8     0.1       0
Bank Sta=4983.40,5041.60
Exp/Cntr=0.3,0.1

Type RM Length L Ch R = 1 ,111329.0,494,494,494
BEGIN DESCRIPTION:
Cross Section New River 114.0
END DESCRIPTION:
#Sta/Elev= 82
  3816.9   53.43  3836.9   52.54  3896.9   50.64  3926.9   49.25  3966.9      48
  3986.9   47.87  3996.9   47.05  4016.9   44.19  4066.9   42.02  4086.9   41.34
  4176.9   39.17  4186.9   39.25  4216.9   38.89  4236.9   39.15  4246.9   39.05
  4296.9   39.45  4316.9   39.79  4436.9   39.79  4466.9   39.32  4476.9   39.45
  4506.9   38.91  4606.9   37.59  4636.9   37.52  4666.9   36.93  4676.9   37.23
  4696.6   35.49  4746.9   31.04  4766.9   29.89  4776.9   29.59  4806.9   29.69
  4836.9   29.46  4846.9   29.85  4876.9   30.36  4886.9   29.67  4896.9   30.01
  4916.9   31.94  4926.9   31.54  4983.4   28.79  4989.6   23.34  4992.9   21.86
  5001.1   21.29  5007.1   22.68  5010.4   23.33  5017.4   29.14    5020   30.94
    5030   34.11    5040   34.65    5050   34.89    5080   32.67    5090   32.32
    5110   32.32    5140   33.43    5160   33.31    5180   33.96    5190    34.1
    5220   33.19    5240   33.34    5280   32.79    5300   32.97    5320   32.48
    5370   32.54    5400   33.45    5510   32.92    5520   32.76    5550   33.11
    5570   32.88    5580   32.48    5640   32.07    5790   32.52    5810   33.97
    5850   38.23    5860   40.12    5870   41.81    5890   44.55    5900   46.13
    5910   48.05    5920   49.52    5930   50.67    5940   50.98    5943   50.99
  5948.5   51.02  5958.4   51.07
#Mann= 7 , 1 , 0
 3816.90     0.2       0  3996.9     0.1       0  4696.6    0.15       0
  4983.4   0.045       0  5017.4    0.15       0    5943     0.1       0
  5948.5     0.2       0
Bank Sta=4983.40,5017.40
Exp/Cntr=0.3,0.1

Type RM Length L Ch R = 1 ,110835.0,511,511,511
BEGIN DESCRIPTION:
Cross Section New River 113.0
END DESCRIPTION:
#Sta/Elev= 72
  3619.2   48.91  3639.2   48.26  3659.2   47.23  3709.2   45.84  3769.2    44.5
  3799.2   44.04  3822.9   43.66  3859.2   43.09  3869.2   42.77  3889.2   42.66
  3929.2   42.02  3939.2   42.03  3959.2   41.57  4099.2   40.12  4119.2    40.2
  4149.2   39.76  4259.2   39.66  4279.2   39.43  4289.2   39.64  4319.2   39.01
  4459.2   37.79  4479.2   37.22  4489.2   37.23  4499.2   36.91  4519.2   37.03
  4537.2   35.99  4539.2   35.87  4569.2   34.86  4579.2   34.31  4619.2   31.04
  4629.2   30.51  4669.2   31.37  4679.2   31.45  4729.2   29.99  4859.2   29.79
  4869.2   29.99  4879.2   29.69  4963.4   27.59  4988.8   22.68  4995.6    21.1
  5010.6   21.65  5011.2   22.54  5032.6   26.62    5070   25.98    5080   26.44
    5300   31.01    5350   32.85    5360   32.85    5380   33.11    5410   32.28
    5490   31.74    5500   31.37    5510   31.24    5580   32.37    5610   31.98
    5620   31.39    5630    29.9    5640   31.82    5650   33.18    5690   35.57
    5810   41.08    5830   42.33  5832.6   42.45    5860   43.67    5870   43.77
    5880   44.68    5900   44.35    5910    46.2    5920   46.24    5930   46.73
    5950   50.55    5960   51.64
#Mann= 6 , 1 , 0
 3619.20     0.2       0  3822.9     0.1       0  4537.2    0.15       0
  4963.4   0.045       0  5032.6    0.15       0  5832.6     0.1       0
Bank Sta=4963.40,5032.60
Exp/Cntr=0.3,0.1

Type RM Length L Ch R = 1 ,110324.0,325,325,325
BEGIN DESCRIPTION:
Cross Section New River 112.0
END DESCRIPTION:
#Sta/Elev= 82
  3775.2   52.54  3785.2   52.37  3795.2   51.54  3805.2   49.89  3845.2   45.22
  3855.2   43.79  3861.3   43.59  3865.2   43.46  3875.2   42.87  3895.2   42.75
  3945.2   41.74  3955.2   41.84  3975.2   41.52  4045.2    41.8  4055.2   41.67
  4065.2   41.26  4075.2   41.15  4085.2   41.39  4105.2   40.77  4125.2   40.61
  4145.2   39.48  4155.2   39.43  4165.2   39.76  4185.2   39.94  4205.2   39.46
  4235.2    39.5  4245.2   39.38  4255.2   39.46  4285.2   38.92  4305.2   38.86
  4345.2    38.4  4355.2    38.5  4395.2   37.97  4405.2   37.58  4415.2   36.85
  4425.2   35.89  4435.2   35.73  4455.2   33.97  4465.2   33.25  4475.2   32.85
  4476.7   32.83  4485.2   32.71  4555.2   34.63  4625.2   28.95  4635.2   28.35
  4645.2   28.01  4725.2   28.28  4745.2   27.61  4755.2   27.53  4765.2   27.96
  4835.2   32.49  4845.2   32.62  4885.2   29.31  4978.4    31.4  4988.8   22.49
  4995.6   20.91  5010.6   21.46  5011.2   22.35  5027.6   29.43  5050.7   28.65
  5060.7   30.65  5070.7   32.07  5080.7   32.37  5110.7   31.14  5130.7   30.79
  5230.7   31.29  5310.7   30.61  5320.7   31.01  5340.7   30.73  5360.7   31.43
  5380.7   31.57  5440.7   30.27  5510.7   29.79  5550.7   30.63  5600.7   33.19
  5610.7   33.35  5630.7   34.19  5640.7   35.24  5650.7   36.58  5776.6      46
  5850.7   51.54  5870.7   52.51
#Mann= 6 , 1 , 0
 3775.20     0.2       0  3861.3     0.1       0  4476.7    0.15       0
  4978.4   0.045       0  5027.6    0.15       0  5776.6    0.12       0
Bank Sta=4978.40,5027.60
Exp/Cntr=0.3,0.1

Type RM Length L Ch R = 1 ,109999.0,687,687,687
BEGIN DESCRIPTION:
Cross Section New River 111.0 (SURV CCX20)
Located At: GREGORY FORK RD
END DESCRIPTION:
#Sta/Elev= 85
  3799.1   48.42  3829.1   43.87  3849.1    43.1  3856.5   42.93  3889.1    42.2
  3899.1   42.16  3959.1   40.83  3969.1   40.86  4009.1   40.03  4019.1   40.02
  4029.1   39.71  4039.1   39.77  4069.1   39.04  4089.1   38.31  4129.1   37.63
  4159.1   36.97  4169.1    36.6  4179.1   36.64  4209.1   36.27  4219.1    36.3
  4239.1   35.07  4249.1   34.91  4289.1   35.43  4299.1   35.31  4309.1   35.57
  4319.1   35.27  4329.1   35.28  4339.1    35.5  4349.1   35.47  4359.1    35.8
  4369.1   35.62  4399.1   36.17  4439.9   35.29  4509.1   33.79  4539.1   32.16
  4579.1   30.65  4589.1   29.92  4619.1      29  4669.1   29.79  4679.1   30.16
  4699.1   28.71  4700.3    28.7  4730.3   28.62  4770.3   27.34  4830.3   27.71
  4840.3   27.99  4850.3   28.05  4872.7   27.94  4888.9   28.34  4899.3   31.14
  4938.7   30.85  4950.5   34.46  4961.7   35.15  4978.4   31.27  4988.8   22.36
  4995.6   20.78  5010.6   21.33  5011.2   22.22  5017.6    29.3  5025.7   31.23
  5054.4   32.53  5060.6   30.63  5073.5    30.3  5126.9   30.38    5170   37.55
    5190   37.65    5200   37.49    5210    37.1    5220   36.96    5250   37.47
    5300   36.13    5390   37.71    5460   37.69    5470   37.83    5480   38.28
    5550   39.91    5570   39.87    5650   42.45    5680   42.85  5759.1    47.6
    5790   49.46  5827.8   51.02    5840   51.52    5850   52.24  5859.1   53.08
#Mann= 7 , 1 , 0
 3799.10     0.2       0  3856.5     0.1       0  4439.9    0.15       0
  4978.4   0.045       0  5017.6    0.15       0  5759.1    0.12       0
  5827.8     0.2       0
Bank Sta=4978.40,5017.60
Exp/Cntr=0.3,0.1

Type RM Length L Ch R = 1 ,109312.0,499,499,499
BEGIN DESCRIPTION:
Cross Section New River 110.0
END DESCRIPTION:
#Sta/Elev= 84
  3711.5    40.4  3761.5   39.97  3771.5    39.5  3781.5   39.55  3790.2   39.36
  3811.5    38.9  3851.5    38.6  3861.5   38.72  3871.5   38.57  3881.5   38.62
  3901.5   38.27  3991.5   37.97  4001.5    37.8  4031.5   37.75  4041.5   37.54
  4051.5   37.69  4061.5   37.28  4091.5    37.3  4131.5   36.37  4141.5   35.86
  4161.5   35.35  4201.5   34.14  4211.5   33.57  4221.5   33.34  4235.1   32.56
  4241.5    32.2  4251.5   32.49  4261.5   32.28  4281.5    32.8  4291.5   33.21
  4301.5   33.31  4311.5   32.97  4321.5    32.4  4341.5    31.7  4361.5   29.57
  4401.5   29.12  4411.5   29.76  4431.5   29.49  4451.5   29.68  4461.5   29.52
  4531.5   29.24  4551.5   28.85  4591.5   29.33  4621.5   30.63  4631.5    30.6
  4651.5   29.96  4661.5   30.02  4671.5   30.33  4691.5   32.47  4711.5   31.14
  4721.5   30.79  4771.5   30.76  4801.5   30.17  4821.5   30.33  4891.5   31.43
  4901.5   31.72  4971.5   31.69  4978.4   30.53  4988.8   21.62  4995.6   20.04
  5010.6   20.59  5011.2   21.48  5017.6   28.56    5030   29.95    5040   31.68
    5060   33.23    5070   31.32    5150   28.42    5160   28.34    5240   30.05
  5261.5   30.15    5280   30.23    5300   29.71    5340   29.89    5350   30.68
    5370   32.92    5380   33.74    5530   42.81    5610    46.3    5630   47.79
  5661.3    48.5    5680   48.93    5700   48.14  5742.2   48.37
#Mann= 7 , 1 , 0
 3711.50     0.2       0  3790.2     0.1       0  4235.1    0.15       0
  4978.4   0.045       0  5017.6    0.15       0  5261.5    0.12       0
  5661.3     0.2       0
Bank Sta=4978.40,5017.60
Exp/Cntr=0.3,0.1

Type RM Length L Ch R = 1 ,108813.0,495,495,495
BEGIN DESCRIPTION:
Cross Section New River 109.0
END DESCRIPTION:
#Sta/Elev= 124
  3563.6   41.25  3583.6   39.36  3613.6   39.28  3653.6   39.32  3663.6   39.49
  3670.2   39.47  3673.6   39.46  3683.6    39.2  3723.6   39.66  3763.6   39.71
  3783.6    39.4  3793.6   39.41  3833.6   38.44  3843.6   38.04  3853.6   38.14
  3863.6   37.74  3893.6   37.36  3903.6    36.9  3933.6   36.21  3943.6   35.76
  3953.6   35.69  3963.6   35.23  4013.6   34.52  4033.6   34.49  4043.6   34.16
  4063.6   34.07  4073.6   33.77  4083.6   33.93  4093.6    33.8  4103.6   34.05
  4113.6   33.92  4143.6   34.01  4153.6   34.75  4161.2   34.84  4163.6   34.87
  4183.6   32.33  4203.6   30.34  4213.6   29.61  4223.6   29.28  4233.6   29.72
  4243.6   29.96  4283.6   29.21  4303.6   28.65  4313.6   28.56  4323.6   28.78
  4343.6   29.59  4363.6   29.61  4423.6    28.5  4433.6   28.12  4443.6   28.03
  4463.6   29.25  4473.6   28.66  4493.6   28.65  4513.6   27.84  4523.6   27.62
  4573.6   28.49  4583.6      28  4613.6   29.21  4623.6    29.4  4643.6   29.11
  4683.6   29.89  4703.6    30.5  4713.6    30.2  4743.6   30.16  4763.6   30.67
  4793.6   30.08  4803.6   30.05  4813.6   29.77  4843.6   29.58  4853.6   29.22
  4863.6   29.99  4893.6    30.7  4923.6   30.31  4963.6   26.67  4986.5   27.72
  4994.6   21.63  4995.5   20.87  4995.8    19.5  5005.3   21.88  5011.1   23.33
  5016.3   26.59  5032.7   26.27  5034.4   26.24  5044.4   29.23  5054.4   31.19
  5074.4   31.04  5094.4   30.29  5114.4   30.54  5144.4   30.77  5164.4   31.51
  5204.4   31.59  5224.4   31.93  5234.4   31.61  5244.4   31.63  5264.4   32.48
  5274.4    32.7  5284.4   32.61  5294.4   32.29  5334.4   33.37  5344.4   33.36
  5354.4   33.62  5374.4   34.75  5394.4   35.71  5404.4   36.54  5414.4   36.84
  5464.4   36.96  5484.4   36.07  5514.4   35.94  5524.4   36.05  5544.4   36.94
  5564.4   38.12  5584.4   38.23  5604.4    38.9  5684.4   40.27  5714.4   41.42
  5754.4   42.24  5784.4   42.46  5814.4   43.01  5826.1   43.12  5834.4    43.2
  5864.4   44.16  5894.4   44.05  5914.4   44.45  5920.7   44.45
#Mann= 7 , 1 , 0
 3563.60     0.2       0  3670.2     0.1       0  4161.2    0.15       0
  4986.5   0.045       0  5016.3    0.15       0  5032.7    0.12       0
  5826.1     0.2       0
Bank Sta=4986.50,5016.30
Exp/Cntr=0.3,0.1

Type RM Length L Ch R = 1 ,108318.0,760.5,760.5,760.5
BEGIN DESCRIPTION:
Cross Section New River 108.0
END DESCRIPTION:
#Sta/Elev= 76
  3585.2   42.07  3605.2   41.96  3635.2   41.31  3645.2   41.28  3655.2   40.98
  3665.2   40.96  3675.2   40.53  3702.5   40.11  3715.2   39.91  3735.2   39.99
  3775.2   38.54  3785.2   38.04  3795.2   38.22  3895.2   37.25  3915.2   36.68
  4215.2   35.91  4285.2   34.84  4305.2   34.47  4375.2   33.68  4425.2   33.67
  4445.2   33.36  4475.2   33.23  4495.2   32.58  4515.2   32.68  4525.2   32.09
  4528.5   31.77  4565.2   28.22  4595.2   28.17  4615.2   28.76  4635.2   28.56
  4655.2   28.89  4675.2   28.83  4695.2   28.37  4715.2   28.32  4725.2   28.49
  4745.2   28.17  4755.2   28.45  4765.2   29.05  4775.2   29.38  4805.2   29.71
  4825.2   29.61  4845.2   29.94  4865.2   31.01  4885.2   31.79  4905.2   31.39
  4915.2   30.68  4925.2   29.44  4986.5   27.18  4994.6   21.09  4995.5   20.33
  4995.8   18.96  5005.3   21.34  5011.1   22.79  5016.3   26.05  5042.3   29.32
  5052.3   31.01  5062.3   31.32  5072.3   31.35  5182.3   29.16  5292.3   30.38
  5334.6    31.4  5342.3   31.59  5402.3   31.28  5412.3   31.34  5472.3   33.65
  5492.3   35.27  5512.3   35.93  5542.3   36.43  5582.3   37.76  5712.3   38.88
  5742.3   39.85  5762.3   41.67  5763.8   41.72  5792.3   42.62  5802.3    42.8
  5838.6    42.3
#Mann= 7 , 1 , 0
 3585.20     0.2       0  3702.5     0.1       0  4528.5    0.15       0
  4986.5   0.045       0  5016.3    0.15       0  5334.6    0.12       0
  5763.8     0.2       0
Bank Sta=4986.50,5016.30
Exp/Cntr=0.5,0.3

Type RM Length L Ch R = 1 ,107557.5,47,47,47
BEGIN DESCRIPTION:
Upstream Section of Bridge/Culvert/Weir
END DESCRIPTION:
#Sta/Elev= 94
  3753.9   49.88  3873.9   45.97  3903.9   45.24  3953.9   43.45  4050.3   41.25
  4183.9   38.19  4273.9   36.98  4283.9   36.72  4293.9   36.76  4458.3   35.82
  4483.9   35.67  4503.9   35.24  4513.9   34.58  4633.9    27.7  4705.1   33.07
  4727.6   32.93  4758.8   32.74    4767   33.24  4775.8   33.09  4782.8   31.98
  4828.2   30.91  4855.2   30.28  4918.7   29.52 4920.39   29.51  4920.5   29.51
 4920.61   29.51 4949.89   29.38    4950   29.38 4950.11   29.38 4950.19   29.38
  4950.3   29.38 4950.41   29.37  4954.6   29.36  4957.5   29.34 4957.61   29.34
  4957.7   29.34  4966.8    29.3  4971.7   21.18  4973.7   20.83  4980.7    19.6
  4994.6   20.88  4995.5   20.12  4995.8   18.75  5005.3   21.13  5011.1   22.58
  5016.3   25.84  5030.6   26.75  5030.7   26.76  5038.4   27.07 5039.56   27.23
 5039.67   27.24 5039.78   27.26 5039.89   27.27    5040   27.29 5040.09    27.3
  5040.2   27.31 5040.31   27.33 5069.59   31.29  5069.7   31.31 5069.81   31.32
  5070.1   31.36  5092.7   32.16  5103.6   26.06  5109.5   26.27    5115   26.46
  5139.3    25.9  5152.5   28.92  5188.9   29.99  5194.3   30.15  5239.7    30.6
  5284.5   31.45  5286.1   31.45  5558.7    30.6  5622.9   30.97  5664.8   31.22
  5704.8   31.45  5811.1   32.07  5911.1   32.65  5938.7   32.81  5961.1   32.86
  6111.1    33.2  6168.7   33.33  6178.7   34.08  6180.9   34.24  6211.1   36.47
    6212   36.54    6292   38.94    6342   38.52  6371.1   39.95    6372   39.99
  6421.1   40.54    6472   41.11  6518.3   45.35    6552   48.44
#Mann= 6 , 1 , 0
 3753.90    0.12       0  4954.6    0.15       0  4966.8    0.04       0
  5016.3    0.15       0  5622.9    0.12       0  6180.9     0.2       0
#XS Ineff= 2 , 0
       0    4943      34    5055       0      34
Bank Sta=4966.80,5016.30
Exp/Cntr=0.5,0.3

Type RM Length L Ch R = 3 ,107534.0,,,
BEGIN DESCRIPTION:
BANKS BRIDGE ROAD
Structure ID: New River-5-TOR (NEWR5)
END DESCRIPTION:
Bridge Culvert--1,0,-1,-1, 0
Deck Dist Width WeirC Skew NumUp NumDn MinLoCord MaxHiCord MaxSubmerge Is_Ogee
10,27,2.6,,94,94,,,0.95,0,1,1,,
  3753.9  3873.9  3903.9  3953.9  4050.3  4183.9  4273.9  4283.9  4293.9  4458.3
  4483.9  4503.9  4513.9  4633.9  4705.1  4727.6  4758.8    4767  4775.8  4782.8
  4828.2  4855.2  4918.7 4920.39  4920.5 4920.61 4949.89    4950 4950.11 4950.19
  4950.3 4950.41  4954.6  4957.5 4957.61  4957.7  4966.8  4971.7  4973.7  4980.7
  4994.6  4995.5  4995.8  5005.3  5011.1  5016.3  5030.6  5030.7  5038.4 5039.56
 5039.67 5039.78 5039.89    5040 5040.09  5040.2 5040.31 5069.59  5069.7 5069.81
  5070.1  5092.7  5103.6  5109.5    5115  5139.3  5152.5  5188.9  5194.3  5239.7
  5284.5  5286.1  5558.7  5622.9  5664.8  5704.8  5811.1  5911.1  5938.7  5961.1
  6111.1  6168.7  6178.7  6180.9  6211.1    6212    6292    6342  6371.1    6372
  6421.1    6472  6518.3    6552
   49.88   45.97   45.24   43.45   41.26   38.84   38.35    38.3   38.24   37.35
   37.21   37.09   37.04   36.36   35.96   35.83   35.62   35.56    35.5   35.46
   35.15   34.91   34.35   34.34   36.84   36.84    36.9    36.9    36.9   36.89
   36.89   36.89   36.84   36.81   36.81   36.81    36.8   36.79   36.79   36.78
   36.77   36.77   36.77   36.76   36.75   36.75   36.73   36.73   36.72   36.72
   36.72   36.72   36.72   36.72   36.72   36.72   36.72   36.92   36.92   34.42
   34.42   34.42   34.42   34.42   34.41   34.37   34.35   34.29    34.3   34.42
   34.53   34.53   34.43   34.41   34.39   34.45   34.95   35.97   35.98   35.98
   36.18   37.16   37.34   37.37   37.89   37.92   40.55    42.2   43.16   43.17
   43.72   44.18   45.36   48.44
   49.88   45.97   45.24   43.45   41.25   38.19   36.98   36.72   36.76   35.82
   35.67   35.24   34.58    27.7   33.07   32.93   32.74   33.24   33.09   31.98
   30.91   30.28   29.52   29.51   29.51   29.51   29.38   29.38   29.38   29.38